<?xml version="1.0" encoding="UTF-8"?>

<!-- generated on 2025-03-13 10:38:49 by Eclipse SUMO netgenerate Version 1.19.0
<configuration xmlns:xsi="http://www.w3.org/2001/XMLSchema-instance" xsi:noNamespaceSchemaLocation="http://sumo.dlr.de/xsd/netgenerateConfiguration.xsd">

    <grid_network>
        <grid value="true"/>
        <grid.x-number value="2"/>
        <grid.y-number value="2"/>
        <grid.x-length value="200"/>
        <grid.y-length value="200"/>
        <grid.attach-length value="100"/>
    </grid_network>

    <output>
        <output-file value="generated_networks\network.net.xml"/>
    </output>

    <building_defaults>
        <default.lanenumber value="6"/>
        <default.speed value="13.9"/>
        <default.type value="highway.residential"/>
        <default-junction-type value="traffic_light"/>
    </building_defaults>

</configuration>
-->

<net version="1.16" junctionCornerDetail="5" limitTurnSpeed="5.50" xmlns:xsi="http://www.w3.org/2001/XMLSchema-instance" xsi:noNamespaceSchemaLocation="http://sumo.dlr.de/xsd/net_file.xsd">

    <location netOffset="0.00,0.00" convBoundary="0.00,0.00,400.00,400.00" origBoundary="0.00,0.00,400.00,400.00" projParameter="!"/>

    <edge id=":A0_0" function="internal">
        <lane id=":A0_0_0" index="0" speed="6.51" length="9.03" shape="82.40,123.20 82.05,120.75 81.00,119.00 79.25,117.95 76.80,117.60"/>
        <lane id=":A0_0_1" index="1" speed="7.33" length="11.73" shape="82.40,123.20 82.05,119.35 81.00,116.60 79.25,114.95 76.80,114.40"/>
    </edge>
    <edge id=":A0_2" function="internal">
        <lane id=":A0_2_0" index="0" speed="13.90" length="46.40" shape="82.40,123.20 82.40,76.80"/>
        <lane id=":A0_2_1" index="1" speed="13.90" length="46.40" shape="85.60,123.20 85.60,76.80"/>
        <lane id=":A0_2_2" index="2" speed="13.90" length="46.40" shape="88.80,123.20 88.80,76.80"/>
        <lane id=":A0_2_3" index="3" speed="13.90" length="46.40" shape="92.00,123.20 92.00,76.80"/>
        <lane id=":A0_2_4" index="4" speed="13.90" length="46.40" shape="95.20,123.20 95.20,76.80"/>
        <lane id=":A0_2_5" index="5" speed="13.90" length="46.40" shape="98.40,123.20 98.40,76.80"/>
    </edge>
    <edge id=":A0_8" function="internal">
        <lane id=":A0_8_0" index="0" speed="13.54" length="5.63" shape="98.40,123.20 99.11,117.61"/>
        <lane id=":A0_8_1" index="1" speed="13.13" length="5.01" shape="98.40,123.20 99.11,118.24"/>
    </edge>
    <edge id=":A0_10" function="internal">
        <lane id=":A0_10_0" index="0" speed="3.65" length="1.44" shape="98.40,123.20 99.20,122.00"/>
    </edge>
    <edge id=":A0_44" function="internal">
        <lane id=":A0_44_0" index="0" speed="13.54" length="36.97" shape="99.11,117.61 99.95,110.95 104.60,102.20 112.35,96.95 123.20,95.20"/>
    </edge>
    <edge id=":A0_45" function="internal">
        <lane id=":A0_45_0" index="0" speed="13.13" length="34.98" shape="99.11,118.24 99.95,112.35 104.60,104.60 112.35,99.95 123.20,98.40"/>
    </edge>
    <edge id=":A0_46" function="internal">
        <lane id=":A0_46_0" index="0" speed="3.65" length="3.23" shape="99.20,122.00 100.00,121.60 100.80,122.00 101.60,123.20"/>
    </edge>
    <edge id=":A0_11" function="internal">
        <lane id=":A0_11_0" index="0" speed="6.51" length="9.03" shape="123.20,117.60 120.75,117.95 119.00,119.00 117.95,120.75 117.60,123.20"/>
        <lane id=":A0_11_1" index="1" speed="7.33" length="11.73" shape="123.20,117.60 119.35,117.95 116.60,119.00 114.95,120.75 114.40,123.20"/>
    </edge>
    <edge id=":A0_13" function="internal">
        <lane id=":A0_13_0" index="0" speed="13.90" length="46.40" shape="123.20,117.60 76.80,117.60"/>
        <lane id=":A0_13_1" index="1" speed="13.90" length="46.40" shape="123.20,114.40 76.80,114.40"/>
        <lane id=":A0_13_2" index="2" speed="13.90" length="46.40" shape="123.20,111.20 76.80,111.20"/>
        <lane id=":A0_13_3" index="3" speed="13.90" length="46.40" shape="123.20,108.00 76.80,108.00"/>
        <lane id=":A0_13_4" index="4" speed="13.90" length="46.40" shape="123.20,104.80 76.80,104.80"/>
        <lane id=":A0_13_5" index="5" speed="13.90" length="46.40" shape="123.20,101.60 76.80,101.60"/>
    </edge>
    <edge id=":A0_19" function="internal">
        <lane id=":A0_19_0" index="0" speed="13.54" length="5.63" shape="123.20,101.60 117.61,100.89"/>
        <lane id=":A0_19_1" index="1" speed="13.13" length="5.01" shape="123.20,101.60 118.24,100.89"/>
    </edge>
    <edge id=":A0_21" function="internal">
        <lane id=":A0_21_0" index="0" speed="3.65" length="1.44" shape="123.20,101.60 122.00,100.80"/>
    </edge>
    <edge id=":A0_47" function="internal">
        <lane id=":A0_47_0" index="0" speed="13.54" length="36.97" shape="117.61,100.89 110.95,100.05 102.20,95.40 96.95,87.65 95.20,76.80"/>
    </edge>
    <edge id=":A0_48" function="internal">
        <lane id=":A0_48_0" index="0" speed="13.13" length="34.98" shape="118.24,100.89 112.35,100.05 104.60,95.40 99.95,87.65 98.40,76.80"/>
    </edge>
    <edge id=":A0_49" function="internal">
        <lane id=":A0_49_0" index="0" speed="3.65" length="3.23" shape="122.00,100.80 121.60,100.00 122.00,99.20 123.20,98.40"/>
    </edge>
    <edge id=":A0_22" function="internal">
        <lane id=":A0_22_0" index="0" speed="6.51" length="9.03" shape="117.60,76.80 117.95,79.25 119.00,81.00 120.75,82.05 123.20,82.40"/>
        <lane id=":A0_22_1" index="1" speed="7.33" length="11.73" shape="117.60,76.80 117.95,80.65 119.00,83.40 120.75,85.05 123.20,85.60"/>
    </edge>
    <edge id=":A0_24" function="internal">
        <lane id=":A0_24_0" index="0" speed="13.90" length="46.40" shape="117.60,76.80 117.60,123.20"/>
        <lane id=":A0_24_1" index="1" speed="13.90" length="46.40" shape="114.40,76.80 114.40,123.20"/>
        <lane id=":A0_24_2" index="2" speed="13.90" length="46.40" shape="111.20,76.80 111.20,123.20"/>
        <lane id=":A0_24_3" index="3" speed="13.90" length="46.40" shape="108.00,76.80 108.00,123.20"/>
        <lane id=":A0_24_4" index="4" speed="13.90" length="46.40" shape="104.80,76.80 104.80,123.20"/>
        <lane id=":A0_24_5" index="5" speed="13.90" length="46.40" shape="101.60,76.80 101.60,123.20"/>
    </edge>
    <edge id=":A0_30" function="internal">
        <lane id=":A0_30_0" index="0" speed="13.54" length="5.63" shape="101.60,76.80 100.89,82.39"/>
        <lane id=":A0_30_1" index="1" speed="13.13" length="5.01" shape="101.60,76.80 100.89,81.76"/>
    </edge>
    <edge id=":A0_32" function="internal">
        <lane id=":A0_32_0" index="0" speed="3.65" length="1.44" shape="101.60,76.80 100.80,78.00"/>
    </edge>
    <edge id=":A0_50" function="internal">
        <lane id=":A0_50_0" index="0" speed="13.54" length="36.97" shape="100.89,82.39 100.05,89.05 95.40,97.80 87.65,103.05 76.80,104.80"/>
    </edge>
    <edge id=":A0_51" function="internal">
        <lane id=":A0_51_0" index="0" speed="13.13" length="34.98" shape="100.89,81.76 100.05,87.65 95.40,95.40 87.65,100.05 76.80,101.60"/>
    </edge>
    <edge id=":A0_52" function="internal">
        <lane id=":A0_52_0" index="0" speed="3.65" length="3.23" shape="100.80,78.00 100.00,78.40 99.20,78.00 98.40,76.80"/>
    </edge>
    <edge id=":A0_33" function="internal">
        <lane id=":A0_33_0" index="0" speed="6.51" length="9.03" shape="76.80,82.40 79.25,82.05 81.00,81.00 82.05,79.25 82.40,76.80"/>
        <lane id=":A0_33_1" index="1" speed="7.33" length="11.73" shape="76.80,82.40 80.65,82.05 83.40,81.00 85.05,79.25 85.60,76.80"/>
    </edge>
    <edge id=":A0_35" function="internal">
        <lane id=":A0_35_0" index="0" speed="13.90" length="46.40" shape="76.80,82.40 123.20,82.40"/>
        <lane id=":A0_35_1" index="1" speed="13.90" length="46.40" shape="76.80,85.60 123.20,85.60"/>
        <lane id=":A0_35_2" index="2" speed="13.90" length="46.40" shape="76.80,88.80 123.20,88.80"/>
        <lane id=":A0_35_3" index="3" speed="13.90" length="46.40" shape="76.80,92.00 123.20,92.00"/>
        <lane id=":A0_35_4" index="4" speed="13.90" length="46.40" shape="76.80,95.20 123.20,95.20"/>
        <lane id=":A0_35_5" index="5" speed="13.90" length="46.40" shape="76.80,98.40 123.20,98.40"/>
    </edge>
    <edge id=":A0_41" function="internal">
        <lane id=":A0_41_0" index="0" speed="13.54" length="5.63" shape="76.80,98.40 82.39,99.11"/>
        <lane id=":A0_41_1" index="1" speed="13.13" length="5.01" shape="76.80,98.40 81.76,99.11"/>
    </edge>
    <edge id=":A0_43" function="internal">
        <lane id=":A0_43_0" index="0" speed="3.65" length="1.44" shape="76.80,98.40 78.00,99.20"/>
    </edge>
    <edge id=":A0_53" function="internal">
        <lane id=":A0_53_0" index="0" speed="13.54" length="36.97" shape="82.39,99.11 89.05,99.95 97.80,104.60 103.05,112.35 104.80,123.20"/>
    </edge>
    <edge id=":A0_54" function="internal">
        <lane id=":A0_54_0" index="0" speed="13.13" length="34.98" shape="81.76,99.11 87.65,99.95 95.40,104.60 100.05,112.35 101.60,123.20"/>
    </edge>
    <edge id=":A0_55" function="internal">
        <lane id=":A0_55_0" index="0" speed="3.65" length="3.23" shape="78.00,99.20 78.40,100.00 78.00,100.80 76.80,101.60"/>
    </edge>
    <edge id=":A1_0" function="internal">
        <lane id=":A1_0_0" index="0" speed="6.51" length="9.03" shape="82.40,323.20 82.05,320.75 81.00,319.00 79.25,317.95 76.80,317.60"/>
        <lane id=":A1_0_1" index="1" speed="7.33" length="11.73" shape="82.40,323.20 82.05,319.35 81.00,316.60 79.25,314.95 76.80,314.40"/>
    </edge>
    <edge id=":A1_2" function="internal">
        <lane id=":A1_2_0" index="0" speed="13.90" length="46.40" shape="82.40,323.20 82.40,276.80"/>
        <lane id=":A1_2_1" index="1" speed="13.90" length="46.40" shape="85.60,323.20 85.60,276.80"/>
        <lane id=":A1_2_2" index="2" speed="13.90" length="46.40" shape="88.80,323.20 88.80,276.80"/>
        <lane id=":A1_2_3" index="3" speed="13.90" length="46.40" shape="92.00,323.20 92.00,276.80"/>
        <lane id=":A1_2_4" index="4" speed="13.90" length="46.40" shape="95.20,323.20 95.20,276.80"/>
        <lane id=":A1_2_5" index="5" speed="13.90" length="46.40" shape="98.40,323.20 98.40,276.80"/>
    </edge>
    <edge id=":A1_8" function="internal">
        <lane id=":A1_8_0" index="0" speed="13.54" length="5.63" shape="98.40,323.20 99.11,317.61"/>
        <lane id=":A1_8_1" index="1" speed="13.13" length="5.01" shape="98.40,323.20 99.11,318.24"/>
    </edge>
    <edge id=":A1_10" function="internal">
        <lane id=":A1_10_0" index="0" speed="3.65" length="1.44" shape="98.40,323.20 99.20,322.00"/>
    </edge>
    <edge id=":A1_44" function="internal">
        <lane id=":A1_44_0" index="0" speed="13.54" length="36.97" shape="99.11,317.61 99.95,310.95 104.60,302.20 112.35,296.95 123.20,295.20"/>
    </edge>
    <edge id=":A1_45" function="internal">
        <lane id=":A1_45_0" index="0" speed="13.13" length="34.98" shape="99.11,318.24 99.95,312.35 104.60,304.60 112.35,299.95 123.20,298.40"/>
    </edge>
    <edge id=":A1_46" function="internal">
        <lane id=":A1_46_0" index="0" speed="3.65" length="3.23" shape="99.20,322.00 100.00,321.60 100.80,322.00 101.60,323.20"/>
    </edge>
    <edge id=":A1_11" function="internal">
        <lane id=":A1_11_0" index="0" speed="6.51" length="9.03" shape="123.20,317.60 120.75,317.95 119.00,319.00 117.95,320.75 117.60,323.20"/>
        <lane id=":A1_11_1" index="1" speed="7.33" length="11.73" shape="123.20,317.60 119.35,317.95 116.60,319.00 114.95,320.75 114.40,323.20"/>
    </edge>
    <edge id=":A1_13" function="internal">
        <lane id=":A1_13_0" index="0" speed="13.90" length="46.40" shape="123.20,317.60 76.80,317.60"/>
        <lane id=":A1_13_1" index="1" speed="13.90" length="46.40" shape="123.20,314.40 76.80,314.40"/>
        <lane id=":A1_13_2" index="2" speed="13.90" length="46.40" shape="123.20,311.20 76.80,311.20"/>
        <lane id=":A1_13_3" index="3" speed="13.90" length="46.40" shape="123.20,308.00 76.80,308.00"/>
        <lane id=":A1_13_4" index="4" speed="13.90" length="46.40" shape="123.20,304.80 76.80,304.80"/>
        <lane id=":A1_13_5" index="5" speed="13.90" length="46.40" shape="123.20,301.60 76.80,301.60"/>
    </edge>
    <edge id=":A1_19" function="internal">
        <lane id=":A1_19_0" index="0" speed="13.54" length="5.63" shape="123.20,301.60 117.61,300.89"/>
        <lane id=":A1_19_1" index="1" speed="13.13" length="5.01" shape="123.20,301.60 118.24,300.89"/>
    </edge>
    <edge id=":A1_21" function="internal">
        <lane id=":A1_21_0" index="0" speed="3.65" length="1.44" shape="123.20,301.60 122.00,300.80"/>
    </edge>
    <edge id=":A1_47" function="internal">
        <lane id=":A1_47_0" index="0" speed="13.54" length="36.97" shape="117.61,300.89 110.95,300.05 102.20,295.40 96.95,287.65 95.20,276.80"/>
    </edge>
    <edge id=":A1_48" function="internal">
        <lane id=":A1_48_0" index="0" speed="13.13" length="34.98" shape="118.24,300.89 112.35,300.05 104.60,295.40 99.95,287.65 98.40,276.80"/>
    </edge>
    <edge id=":A1_49" function="internal">
        <lane id=":A1_49_0" index="0" speed="3.65" length="3.23" shape="122.00,300.80 121.60,300.00 122.00,299.20 123.20,298.40"/>
    </edge>
    <edge id=":A1_22" function="internal">
        <lane id=":A1_22_0" index="0" speed="6.51" length="9.03" shape="117.60,276.80 117.95,279.25 119.00,281.00 120.75,282.05 123.20,282.40"/>
        <lane id=":A1_22_1" index="1" speed="7.33" length="11.73" shape="117.60,276.80 117.95,280.65 119.00,283.40 120.75,285.05 123.20,285.60"/>
    </edge>
    <edge id=":A1_24" function="internal">
        <lane id=":A1_24_0" index="0" speed="13.90" length="46.40" shape="117.60,276.80 117.60,323.20"/>
        <lane id=":A1_24_1" index="1" speed="13.90" length="46.40" shape="114.40,276.80 114.40,323.20"/>
        <lane id=":A1_24_2" index="2" speed="13.90" length="46.40" shape="111.20,276.80 111.20,323.20"/>
        <lane id=":A1_24_3" index="3" speed="13.90" length="46.40" shape="108.00,276.80 108.00,323.20"/>
        <lane id=":A1_24_4" index="4" speed="13.90" length="46.40" shape="104.80,276.80 104.80,323.20"/>
        <lane id=":A1_24_5" index="5" speed="13.90" length="46.40" shape="101.60,276.80 101.60,323.20"/>
    </edge>
    <edge id=":A1_30" function="internal">
        <lane id=":A1_30_0" index="0" speed="13.54" length="5.63" shape="101.60,276.80 100.89,282.39"/>
        <lane id=":A1_30_1" index="1" speed="13.13" length="5.01" shape="101.60,276.80 100.89,281.76"/>
    </edge>
    <edge id=":A1_32" function="internal">
        <lane id=":A1_32_0" index="0" speed="3.65" length="1.44" shape="101.60,276.80 100.80,278.00"/>
    </edge>
    <edge id=":A1_50" function="internal">
        <lane id=":A1_50_0" index="0" speed="13.54" length="36.97" shape="100.89,282.39 100.05,289.05 95.40,297.80 87.65,303.05 76.80,304.80"/>
    </edge>
    <edge id=":A1_51" function="internal">
        <lane id=":A1_51_0" index="0" speed="13.13" length="34.98" shape="100.89,281.76 100.05,287.65 95.40,295.40 87.65,300.05 76.80,301.60"/>
    </edge>
    <edge id=":A1_52" function="internal">
        <lane id=":A1_52_0" index="0" speed="3.65" length="3.23" shape="100.80,278.00 100.00,278.40 99.20,278.00 98.40,276.80"/>
    </edge>
    <edge id=":A1_33" function="internal">
        <lane id=":A1_33_0" index="0" speed="6.51" length="9.03" shape="76.80,282.40 79.25,282.05 81.00,281.00 82.05,279.25 82.40,276.80"/>
        <lane id=":A1_33_1" index="1" speed="7.33" length="11.73" shape="76.80,282.40 80.65,282.05 83.40,281.00 85.05,279.25 85.60,276.80"/>
    </edge>
    <edge id=":A1_35" function="internal">
        <lane id=":A1_35_0" index="0" speed="13.90" length="46.40" shape="76.80,282.40 123.20,282.40"/>
        <lane id=":A1_35_1" index="1" speed="13.90" length="46.40" shape="76.80,285.60 123.20,285.60"/>
        <lane id=":A1_35_2" index="2" speed="13.90" length="46.40" shape="76.80,288.80 123.20,288.80"/>
        <lane id=":A1_35_3" index="3" speed="13.90" length="46.40" shape="76.80,292.00 123.20,292.00"/>
        <lane id=":A1_35_4" index="4" speed="13.90" length="46.40" shape="76.80,295.20 123.20,295.20"/>
        <lane id=":A1_35_5" index="5" speed="13.90" length="46.40" shape="76.80,298.40 123.20,298.40"/>
    </edge>
    <edge id=":A1_41" function="internal">
        <lane id=":A1_41_0" index="0" speed="13.54" length="5.63" shape="76.80,298.40 82.39,299.11"/>
        <lane id=":A1_41_1" index="1" speed="13.13" length="5.01" shape="76.80,298.40 81.76,299.11"/>
    </edge>
    <edge id=":A1_43" function="internal">
        <lane id=":A1_43_0" index="0" speed="3.65" length="1.44" shape="76.80,298.40 78.00,299.20"/>
    </edge>
    <edge id=":A1_53" function="internal">
        <lane id=":A1_53_0" index="0" speed="13.54" length="36.97" shape="82.39,299.11 89.05,299.95 97.80,304.60 103.05,312.35 104.80,323.20"/>
    </edge>
    <edge id=":A1_54" function="internal">
        <lane id=":A1_54_0" index="0" speed="13.13" length="34.98" shape="81.76,299.11 87.65,299.95 95.40,304.60 100.05,312.35 101.60,323.20"/>
    </edge>
    <edge id=":A1_55" function="internal">
        <lane id=":A1_55_0" index="0" speed="3.65" length="3.23" shape="78.00,299.20 78.40,300.00 78.00,300.80 76.80,301.60"/>
    </edge>
    <edge id=":B0_0" function="internal">
        <lane id=":B0_0_0" index="0" speed="6.51" length="9.03" shape="282.40,123.20 282.05,120.75 281.00,119.00 279.25,117.95 276.80,117.60"/>
        <lane id=":B0_0_1" index="1" speed="7.33" length="11.73" shape="282.40,123.20 282.05,119.35 281.00,116.60 279.25,114.95 276.80,114.40"/>
    </edge>
    <edge id=":B0_2" function="internal">
        <lane id=":B0_2_0" index="0" speed="13.90" length="46.40" shape="282.40,123.20 282.40,76.80"/>
        <lane id=":B0_2_1" index="1" speed="13.90" length="46.40" shape="285.60,123.20 285.60,76.80"/>
        <lane id=":B0_2_2" index="2" speed="13.90" length="46.40" shape="288.80,123.20 288.80,76.80"/>
        <lane id=":B0_2_3" index="3" speed="13.90" length="46.40" shape="292.00,123.20 292.00,76.80"/>
        <lane id=":B0_2_4" index="4" speed="13.90" length="46.40" shape="295.20,123.20 295.20,76.80"/>
        <lane id=":B0_2_5" index="5" speed="13.90" length="46.40" shape="298.40,123.20 298.40,76.80"/>
    </edge>
    <edge id=":B0_8" function="internal">
        <lane id=":B0_8_0" index="0" speed="13.54" length="5.63" shape="298.40,123.20 299.11,117.61"/>
        <lane id=":B0_8_1" index="1" speed="13.13" length="5.01" shape="298.40,123.20 299.11,118.24"/>
    </edge>
    <edge id=":B0_10" function="internal">
        <lane id=":B0_10_0" index="0" speed="3.65" length="1.44" shape="298.40,123.20 299.20,122.00"/>
    </edge>
    <edge id=":B0_44" function="internal">
        <lane id=":B0_44_0" index="0" speed="13.54" length="36.97" shape="299.11,117.61 299.95,110.95 304.60,102.20 312.35,96.95 323.20,95.20"/>
    </edge>
    <edge id=":B0_45" function="internal">
        <lane id=":B0_45_0" index="0" speed="13.13" length="34.98" shape="299.11,118.24 299.95,112.35 304.60,104.60 312.35,99.95 323.20,98.40"/>
    </edge>
    <edge id=":B0_46" function="internal">
        <lane id=":B0_46_0" index="0" speed="3.65" length="3.23" shape="299.20,122.00 300.00,121.60 300.80,122.00 301.60,123.20"/>
    </edge>
    <edge id=":B0_11" function="internal">
        <lane id=":B0_11_0" index="0" speed="6.51" length="9.03" shape="323.20,117.60 320.75,117.95 319.00,119.00 317.95,120.75 317.60,123.20"/>
        <lane id=":B0_11_1" index="1" speed="7.33" length="11.73" shape="323.20,117.60 319.35,117.95 316.60,119.00 314.95,120.75 314.40,123.20"/>
    </edge>
    <edge id=":B0_13" function="internal">
        <lane id=":B0_13_0" index="0" speed="13.90" length="46.40" shape="323.20,117.60 276.80,117.60"/>
        <lane id=":B0_13_1" index="1" speed="13.90" length="46.40" shape="323.20,114.40 276.80,114.40"/>
        <lane id=":B0_13_2" index="2" speed="13.90" length="46.40" shape="323.20,111.20 276.80,111.20"/>
        <lane id=":B0_13_3" index="3" speed="13.90" length="46.40" shape="323.20,108.00 276.80,108.00"/>
        <lane id=":B0_13_4" index="4" speed="13.90" length="46.40" shape="323.20,104.80 276.80,104.80"/>
        <lane id=":B0_13_5" index="5" speed="13.90" length="46.40" shape="323.20,101.60 276.80,101.60"/>
    </edge>
    <edge id=":B0_19" function="internal">
        <lane id=":B0_19_0" index="0" speed="13.54" length="5.63" shape="323.20,101.60 317.61,100.89"/>
        <lane id=":B0_19_1" index="1" speed="13.13" length="5.01" shape="323.20,101.60 318.24,100.89"/>
    </edge>
    <edge id=":B0_21" function="internal">
        <lane id=":B0_21_0" index="0" speed="3.65" length="1.44" shape="323.20,101.60 322.00,100.80"/>
    </edge>
    <edge id=":B0_47" function="internal">
        <lane id=":B0_47_0" index="0" speed="13.54" length="36.97" shape="317.61,100.89 310.95,100.05 302.20,95.40 296.95,87.65 295.20,76.80"/>
    </edge>
    <edge id=":B0_48" function="internal">
        <lane id=":B0_48_0" index="0" speed="13.13" length="34.98" shape="318.24,100.89 312.35,100.05 304.60,95.40 299.95,87.65 298.40,76.80"/>
    </edge>
    <edge id=":B0_49" function="internal">
        <lane id=":B0_49_0" index="0" speed="3.65" length="3.23" shape="322.00,100.80 321.60,100.00 322.00,99.20 323.20,98.40"/>
    </edge>
    <edge id=":B0_22" function="internal">
        <lane id=":B0_22_0" index="0" speed="6.51" length="9.03" shape="317.60,76.80 317.95,79.25 319.00,81.00 320.75,82.05 323.20,82.40"/>
        <lane id=":B0_22_1" index="1" speed="7.33" length="11.73" shape="317.60,76.80 317.95,80.65 319.00,83.40 320.75,85.05 323.20,85.60"/>
    </edge>
    <edge id=":B0_24" function="internal">
        <lane id=":B0_24_0" index="0" speed="13.90" length="46.40" shape="317.60,76.80 317.60,123.20"/>
        <lane id=":B0_24_1" index="1" speed="13.90" length="46.40" shape="314.40,76.80 314.40,123.20"/>
        <lane id=":B0_24_2" index="2" speed="13.90" length="46.40" shape="311.20,76.80 311.20,123.20"/>
        <lane id=":B0_24_3" index="3" speed="13.90" length="46.40" shape="308.00,76.80 308.00,123.20"/>
        <lane id=":B0_24_4" index="4" speed="13.90" length="46.40" shape="304.80,76.80 304.80,123.20"/>
        <lane id=":B0_24_5" index="5" speed="13.90" length="46.40" shape="301.60,76.80 301.60,123.20"/>
    </edge>
    <edge id=":B0_30" function="internal">
        <lane id=":B0_30_0" index="0" speed="13.54" length="5.63" shape="301.60,76.80 300.89,82.39"/>
        <lane id=":B0_30_1" index="1" speed="13.13" length="5.01" shape="301.60,76.80 300.89,81.76"/>
    </edge>
    <edge id=":B0_32" function="internal">
        <lane id=":B0_32_0" index="0" speed="3.65" length="1.44" shape="301.60,76.80 300.80,78.00"/>
    </edge>
    <edge id=":B0_50" function="internal">
        <lane id=":B0_50_0" index="0" speed="13.54" length="36.97" shape="300.89,82.39 300.05,89.05 295.40,97.80 287.65,103.05 276.80,104.80"/>
    </edge>
    <edge id=":B0_51" function="internal">
        <lane id=":B0_51_0" index="0" speed="13.13" length="34.98" shape="300.89,81.76 300.05,87.65 295.40,95.40 287.65,100.05 276.80,101.60"/>
    </edge>
    <edge id=":B0_52" function="internal">
        <lane id=":B0_52_0" index="0" speed="3.65" length="3.23" shape="300.80,78.00 300.00,78.40 299.20,78.00 298.40,76.80"/>
    </edge>
    <edge id=":B0_33" function="internal">
        <lane id=":B0_33_0" index="0" speed="6.51" length="9.03" shape="276.80,82.40 279.25,82.05 281.00,81.00 282.05,79.25 282.40,76.80"/>
        <lane id=":B0_33_1" index="1" speed="7.33" length="11.73" shape="276.80,82.40 280.65,82.05 283.40,81.00 285.05,79.25 285.60,76.80"/>
    </edge>
    <edge id=":B0_35" function="internal">
        <lane id=":B0_35_0" index="0" speed="13.90" length="46.40" shape="276.80,82.40 323.20,82.40"/>
        <lane id=":B0_35_1" index="1" speed="13.90" length="46.40" shape="276.80,85.60 323.20,85.60"/>
        <lane id=":B0_35_2" index="2" speed="13.90" length="46.40" shape="276.80,88.80 323.20,88.80"/>
        <lane id=":B0_35_3" index="3" speed="13.90" length="46.40" shape="276.80,92.00 323.20,92.00"/>
        <lane id=":B0_35_4" index="4" speed="13.90" length="46.40" shape="276.80,95.20 323.20,95.20"/>
        <lane id=":B0_35_5" index="5" speed="13.90" length="46.40" shape="276.80,98.40 323.20,98.40"/>
    </edge>
    <edge id=":B0_41" function="internal">
        <lane id=":B0_41_0" index="0" speed="13.54" length="5.63" shape="276.80,98.40 282.39,99.11"/>
        <lane id=":B0_41_1" index="1" speed="13.13" length="5.01" shape="276.80,98.40 281.76,99.11"/>
    </edge>
    <edge id=":B0_43" function="internal">
        <lane id=":B0_43_0" index="0" speed="3.65" length="1.44" shape="276.80,98.40 278.00,99.20"/>
    </edge>
    <edge id=":B0_53" function="internal">
        <lane id=":B0_53_0" index="0" speed="13.54" length="36.97" shape="282.39,99.11 289.05,99.95 297.80,104.60 303.05,112.35 304.80,123.20"/>
    </edge>
    <edge id=":B0_54" function="internal">
        <lane id=":B0_54_0" index="0" speed="13.13" length="34.98" shape="281.76,99.11 287.65,99.95 295.40,104.60 300.05,112.35 301.60,123.20"/>
    </edge>
    <edge id=":B0_55" function="internal">
        <lane id=":B0_55_0" index="0" speed="3.65" length="3.23" shape="278.00,99.20 278.40,100.00 278.00,100.80 276.80,101.60"/>
    </edge>
    <edge id=":B1_0" function="internal">
        <lane id=":B1_0_0" index="0" speed="6.51" length="9.03" shape="282.40,323.20 282.05,320.75 281.00,319.00 279.25,317.95 276.80,317.60"/>
        <lane id=":B1_0_1" index="1" speed="7.33" length="11.73" shape="282.40,323.20 282.05,319.35 281.00,316.60 279.25,314.95 276.80,314.40"/>
    </edge>
    <edge id=":B1_2" function="internal">
        <lane id=":B1_2_0" index="0" speed="13.90" length="46.40" shape="282.40,323.20 282.40,276.80"/>
        <lane id=":B1_2_1" index="1" speed="13.90" length="46.40" shape="285.60,323.20 285.60,276.80"/>
        <lane id=":B1_2_2" index="2" speed="13.90" length="46.40" shape="288.80,323.20 288.80,276.80"/>
        <lane id=":B1_2_3" index="3" speed="13.90" length="46.40" shape="292.00,323.20 292.00,276.80"/>
        <lane id=":B1_2_4" index="4" speed="13.90" length="46.40" shape="295.20,323.20 295.20,276.80"/>
        <lane id=":B1_2_5" index="5" speed="13.90" length="46.40" shape="298.40,323.20 298.40,276.80"/>
    </edge>
    <edge id=":B1_8" function="internal">
        <lane id=":B1_8_0" index="0" speed="13.54" length="5.63" shape="298.40,323.20 299.11,317.61"/>
        <lane id=":B1_8_1" index="1" speed="13.13" length="5.01" shape="298.40,323.20 299.11,318.24"/>
    </edge>
    <edge id=":B1_10" function="internal">
        <lane id=":B1_10_0" index="0" speed="3.65" length="1.44" shape="298.40,323.20 299.20,322.00"/>
    </edge>
    <edge id=":B1_44" function="internal">
        <lane id=":B1_44_0" index="0" speed="13.54" length="36.97" shape="299.11,317.61 299.95,310.95 304.60,302.20 312.35,296.95 323.20,295.20"/>
    </edge>
    <edge id=":B1_45" function="internal">
        <lane id=":B1_45_0" index="0" speed="13.13" length="34.98" shape="299.11,318.24 299.95,312.35 304.60,304.60 312.35,299.95 323.20,298.40"/>
    </edge>
    <edge id=":B1_46" function="internal">
        <lane id=":B1_46_0" index="0" speed="3.65" length="3.23" shape="299.20,322.00 300.00,321.60 300.80,322.00 301.60,323.20"/>
    </edge>
    <edge id=":B1_11" function="internal">
        <lane id=":B1_11_0" index="0" speed="6.51" length="9.03" shape="323.20,317.60 320.75,317.95 319.00,319.00 317.95,320.75 317.60,323.20"/>
        <lane id=":B1_11_1" index="1" speed="7.33" length="11.73" shape="323.20,317.60 319.35,317.95 316.60,319.00 314.95,320.75 314.40,323.20"/>
    </edge>
    <edge id=":B1_13" function="internal">
        <lane id=":B1_13_0" index="0" speed="13.90" length="46.40" shape="323.20,317.60 276.80,317.60"/>
        <lane id=":B1_13_1" index="1" speed="13.90" length="46.40" shape="323.20,314.40 276.80,314.40"/>
        <lane id=":B1_13_2" index="2" speed="13.90" length="46.40" shape="323.20,311.20 276.80,311.20"/>
        <lane id=":B1_13_3" index="3" speed="13.90" length="46.40" shape="323.20,308.00 276.80,308.00"/>
        <lane id=":B1_13_4" index="4" speed="13.90" length="46.40" shape="323.20,304.80 276.80,304.80"/>
        <lane id=":B1_13_5" index="5" speed="13.90" length="46.40" shape="323.20,301.60 276.80,301.60"/>
    </edge>
    <edge id=":B1_19" function="internal">
        <lane id=":B1_19_0" index="0" speed="13.54" length="5.63" shape="323.20,301.60 317.61,300.89"/>
        <lane id=":B1_19_1" index="1" speed="13.13" length="5.01" shape="323.20,301.60 318.24,300.89"/>
    </edge>
    <edge id=":B1_21" function="internal">
        <lane id=":B1_21_0" index="0" speed="3.65" length="1.44" shape="323.20,301.60 322.00,300.80"/>
    </edge>
    <edge id=":B1_47" function="internal">
        <lane id=":B1_47_0" index="0" speed="13.54" length="36.97" shape="317.61,300.89 310.95,300.05 302.20,295.40 296.95,287.65 295.20,276.80"/>
    </edge>
    <edge id=":B1_48" function="internal">
        <lane id=":B1_48_0" index="0" speed="13.13" length="34.98" shape="318.24,300.89 312.35,300.05 304.60,295.40 299.95,287.65 298.40,276.80"/>
    </edge>
    <edge id=":B1_49" function="internal">
        <lane id=":B1_49_0" index="0" speed="3.65" length="3.23" shape="322.00,300.80 321.60,300.00 322.00,299.20 323.20,298.40"/>
    </edge>
    <edge id=":B1_22" function="internal">